notebook_tutorials/synthetic_net_opendss/master_sample_10.dss
clear
new circuit.synthetic_net basekv=157.6864406779661 pu=1.0 phases=3
edit Vsource.source bus1=bus_68.1.2.3

!---------------- LINES ----------------

new linecode.LCode_0 nphases=1 rmatrix=[1.076751] xmatrix=[1.274445] units=km
new line.line_0 bus1=bus_0.3 bus2=bus_1.3 linecode=LCode_0 length=1.0 units=km
new linecode.LCode_1 nphases=1 rmatrix=[1.228168] xmatrix=[1.242115] units=km
new line.line_1 bus1=bus_0.3 bus2=bus_2.3 linecode=LCode_1 length=1.0 units=km
new linecode.LCode_2 nphases=1 rmatrix=[0.753000] xmatrix=[1.525352] units=km
new line.line_2 bus1=bus_3.3 bus2=bus_4.3 linecode=LCode_2 length=1.0 units=km
new linecode.LCode_3 nphases=1 rmatrix=[0.520855] xmatrix=[1.401336] units=km
new line.line_3 bus1=bus_2.3 bus2=bus_4.3 linecode=LCode_3 length=1.0 units=km
new linecode.LCode_4 nphases=1 rmatrix=[0.750636] xmatrix=[1.306735] units=km
new line.line_4 bus1=bus_4.3 bus2=bus_5.3 linecode=LCode_4 length=1.0 units=km
new linecode.LCode_5 nphases=1 rmatrix=[1.002247] xmatrix=[1.303424] units=km
new line.line_5 bus1=bus_5.3 bus2=bus_6.3 linecode=LCode_5 length=1.0 units=km
new linecode.LCode_6 nphases=1 rmatrix=[0.938632] xmatrix=[1.242115] units=km
new line.line_6 bus1=bus_7.3 bus2=bus_8.3 linecode=LCode_6 length=1.0 units=km
new linecode.LCode_7 nphases=1 rmatrix=[0.735802] xmatrix=[1.289844] units=km
new line.line_7 bus1=bus_8.3 bus2=bus_9.3 linecode=LCode_7 length=1.0 units=km
new linecode.LCode_8 nphases=1 rmatrix=[0.558176] xmatrix=[1.282371] units=km
new line.line_8 bus1=bus_3.3 bus2=bus_10.3 linecode=LCode_8 length=1.0 units=km
new linecode.LCode_9 nphases=1 rmatrix=[1.010127] xmatrix=[1.242115] units=km
new line.line_9 bus1=bus_4.3 bus2=bus_10.3 linecode=LCode_9 length=1.0 units=km
new linecode.LCode_10 nphases=1 rmatrix=[0.455117] xmatrix=[1.245414] units=km
new line.line_10 bus1=bus_10.3 bus2=bus_11.3 linecode=LCode_10 length=1.0 units=km
new linecode.LCode_11 nphases=1 rmatrix=[0.881272] xmatrix=[1.322476] units=km
new line.line_11 bus1=bus_1.3 bus2=bus_11.3 linecode=LCode_11 length=1.0 units=km
new linecode.LCode_12 nphases=1 rmatrix=[1.156908] xmatrix=[1.389400] units=km
new line.line_12 bus1=bus_2.3 bus2=bus_11.3 linecode=LCode_12 length=1.0 units=km
new linecode.LCode_13 nphases=1 rmatrix=[0.861473] xmatrix=[1.509324] units=km
new line.line_13 bus1=bus_6.3 bus2=bus_11.3 linecode=LCode_13 length=1.0 units=km
new linecode.LCode_14 nphases=1 rmatrix=[0.659852] xmatrix=[1.320409] units=km
new line.line_14 bus1=bus_10.3 bus2=bus_12.3 linecode=LCode_14 length=1.0 units=km
new linecode.LCode_15 nphases=1 rmatrix=[0.796495] xmatrix=[1.650121] units=km
new line.line_15 bus1=bus_11.3 bus2=bus_13.3 linecode=LCode_15 length=1.0 units=km
new linecode.LCode_16 nphases=2 rmatrix=[1.024808 | 0.059160 1.024808] xmatrix=[1.242115 | 1.024695 1.242115] units=km
new line.line_16 bus1=bus_12.2.3 bus2=bus_14.2.3 linecode=LCode_16 length=1.0 units=km
new linecode.LCode_17 nphases=2 rmatrix=[0.825690 | 0.059160 0.825690] xmatrix=[1.367148 | 1.024695 1.367148] units=km
new line.line_17 bus1=bus_13.2.3 bus2=bus_14.2.3 linecode=LCode_17 length=1.0 units=km
new linecode.LCode_18 nphases=1 rmatrix=[0.577228] xmatrix=[1.329382] units=km
new line.line_18 bus1=bus_11.3 bus2=bus_15.3 linecode=LCode_18 length=1.0 units=km
new linecode.LCode_19 nphases=1 rmatrix=[0.363782] xmatrix=[1.277705] units=km
new line.line_19 bus1=bus_14.3 bus2=bus_16.3 linecode=LCode_19 length=1.0 units=km
new linecode.LCode_20 nphases=1 rmatrix=[0.818820] xmatrix=[1.679841] units=km
new line.line_20 bus1=bus_15.3 bus2=bus_16.3 linecode=LCode_20 length=1.0 units=km
new linecode.LCode_21 nphases=1 rmatrix=[0.507012] xmatrix=[1.424004] units=km
new line.line_21 bus1=bus_16.3 bus2=bus_17.3 linecode=LCode_21 length=1.0 units=km
new linecode.LCode_25 nphases=1 rmatrix=[0.854087] xmatrix=[1.320952] units=km
new line.line_25 bus1=bus_19.3 bus2=bus_20.3 linecode=LCode_25 length=1.0 units=km
new linecode.LCode_26 nphases=1 rmatrix=[0.185372] xmatrix=[1.242115] units=km
new line.line_26 bus1=bus_20.3 bus2=bus_21.3 linecode=LCode_26 length=1.0 units=km
new linecode.LCode_27 nphases=1 rmatrix=[1.223491] xmatrix=[1.414710] units=km
new line.line_27 bus1=bus_21.3 bus2=bus_22.3 linecode=LCode_27 length=1.0 units=km
new linecode.LCode_28 nphases=1 rmatrix=[0.870851] xmatrix=[1.269154] units=km
new line.line_28 bus1=bus_22.3 bus2=bus_23.3 linecode=LCode_28 length=1.0 units=km
new linecode.LCode_29 nphases=1 rmatrix=[0.221616] xmatrix=[1.378221] units=km
new line.line_29 bus1=bus_22.3 bus2=bus_24.3 linecode=LCode_29 length=1.0 units=km
new linecode.LCode_30 nphases=1 rmatrix=[0.714048] xmatrix=[1.242115] units=km
new line.line_30 bus1=bus_24.3 bus2=bus_26.3 linecode=LCode_30 length=1.0 units=km
new linecode.LCode_31 nphases=1 rmatrix=[0.947854] xmatrix=[1.242115] units=km
new line.line_31 bus1=bus_26.3 bus2=bus_27.3 linecode=LCode_31 length=1.0 units=km
new linecode.LCode_32 nphases=1 rmatrix=[0.710655] xmatrix=[1.265039] units=km
new line.line_32 bus1=bus_27.3 bus2=bus_28.3 linecode=LCode_32 length=1.0 units=km
new linecode.LCode_33 nphases=1 rmatrix=[0.866280] xmatrix=[1.429699] units=km
new line.line_33 bus1=bus_7.3 bus2=bus_29.3 linecode=LCode_33 length=1.0 units=km
new linecode.LCode_34 nphases=1 rmatrix=[0.794350] xmatrix=[1.270152] units=km
new line.line_34 bus1=bus_25.3 bus2=bus_29.3 linecode=LCode_34 length=1.0 units=km
new linecode.LCode_35 nphases=1 rmatrix=[0.984029] xmatrix=[1.242115] units=km
new line.line_35 bus1=bus_16.3 bus2=bus_30.3 linecode=LCode_35 length=1.0 units=km
new linecode.LCode_36 nphases=1 rmatrix=[1.131931] xmatrix=[1.327974] units=km
new line.line_36 bus1=bus_28.3 bus2=bus_30.3 linecode=LCode_36 length=1.0 units=km
new linecode.LCode_37 nphases=1 rmatrix=[0.331464] xmatrix=[1.298765] units=km
new line.line_37 bus1=bus_22.3 bus2=bus_31.3 linecode=LCode_37 length=1.0 units=km
new linecode.LCode_38 nphases=1 rmatrix=[1.308104] xmatrix=[1.242115] units=km
new line.line_38 bus1=bus_30.3 bus2=bus_31.3 linecode=LCode_38 length=1.0 units=km
new linecode.LCode_39 nphases=1 rmatrix=[0.424835] xmatrix=[1.316604] units=km
new line.line_39 bus1=bus_26.3 bus2=bus_31.3 linecode=LCode_39 length=1.0 units=km
new linecode.LCode_40 nphases=2 rmatrix=[0.924297 | 0.059160 0.924297] xmatrix=[1.242115 | 1.024695 1.242115] units=km
new line.line_40 bus1=bus_14.2.3 bus2=bus_32.2.3 linecode=LCode_40 length=1.0 units=km
new linecode.LCode_41 nphases=1 rmatrix=[1.142196] xmatrix=[1.301172] units=km
new line.line_41 bus1=bus_18.1 bus2=bus_33.1 linecode=LCode_41 length=1.0 units=km
new linecode.LCode_42 nphases=2 rmatrix=[0.667840 | 0.059160 0.667840] xmatrix=[1.281520 | 1.024695 1.281520] units=km
new line.line_42 bus1=bus_34.2.3 bus2=bus_35.2.3 linecode=LCode_42 length=1.0 units=km
new linecode.LCode_43 nphases=2 rmatrix=[0.715228 | 0.059160 0.715228] xmatrix=[1.242115 | 1.024695 1.242115] units=km
new line.line_43 bus1=bus_34.2.3 bus2=bus_36.2.3 linecode=LCode_43 length=1.0 units=km
new linecode.LCode_44 nphases=2 rmatrix=[0.961007 | 0.059160 0.961007] xmatrix=[1.513906 | 1.024695 1.513906] units=km
new line.line_44 bus1=bus_32.2.3 bus2=bus_36.2.3 linecode=LCode_44 length=1.0 units=km
new linecode.LCode_47 nphases=2 rmatrix=[1.114737 | 0.059160 1.114737] xmatrix=[1.251433 | 1.024695 1.251433] units=km
new line.line_47 bus1=bus_36.2.3 bus2=bus_38.2.3 linecode=LCode_47 length=1.0 units=km
new linecode.LCode_48 nphases=2 rmatrix=[0.596167 | 0.059160 0.596167] xmatrix=[1.386510 | 1.024695 1.386510] units=km
new line.line_48 bus1=bus_36.2.3 bus2=bus_39.2.3 linecode=LCode_48 length=1.0 units=km
new linecode.LCode_49 nphases=1 rmatrix=[1.601584] xmatrix=[1.242115] units=km
new line.line_49 bus1=bus_29.3 bus2=bus_37.3 linecode=LCode_49 length=1.0 units=km
new linecode.LCode_50 nphases=2 rmatrix=[0.581626 | 0.059160 0.581626] xmatrix=[1.242115 | 1.024695 1.242115] units=km
new line.line_50 bus1=bus_38.2.3 bus2=bus_39.2.3 linecode=LCode_50 length=1.0 units=km
new linecode.LCode_51 nphases=2 rmatrix=[0.530221 | 0.059160 0.530221] xmatrix=[1.242115 | 1.024695 1.242115] units=km
new line.line_51 bus1=bus_39.2.3 bus2=bus_40.2.3 linecode=LCode_51 length=1.0 units=km
new linecode.LCode_52 nphases=2 rmatrix=[0.397683 | 0.059160 0.397683] xmatrix=[1.242115 | 1.024695 1.242115] units=km
new line.line_52 bus1=bus_39.2.3 bus2=bus_41.2.3 linecode=LCode_52 length=1.0 units=km
new linecode.LCode_53 nphases=2 rmatrix=[0.245114 | 0.059160 0.245114] xmatrix=[1.576795 | 1.024695 1.576795] units=km
new line.line_53 bus1=bus_40.2.3 bus2=bus_41.2.3 linecode=LCode_53 length=1.0 units=km
new linecode.LCode_54 nphases=2 rmatrix=[0.680624 | 0.059160 0.680624] xmatrix=[1.242115 | 1.024695 1.242115] units=km
new line.line_54 bus1=bus_42.2.3 bus2=bus_43.2.3 linecode=LCode_54 length=1.0 units=km
new linecode.LCode_56 nphases=2 rmatrix=[0.646483 | 0.059160 0.646483] xmatrix=[1.242115 | 1.024695 1.242115] units=km
new line.line_56 bus1=bus_43.2.3 bus2=bus_44.2.3 linecode=LCode_56 length=1.0 units=km
new linecode.LCode_57 nphases=1 rmatrix=[0.599808] xmatrix=[1.242115] units=km
new line.line_57 bus1=bus_44.2 bus2=bus_45.2 linecode=LCode_57 length=1.0 units=km
new linecode.LCode_58 nphases=1 rmatrix=[0.957563] xmatrix=[1.332419] units=km
new line.line_58 bus1=bus_45.2 bus2=bus_46.2 linecode=LCode_58 length=1.0 units=km
new linecode.LCode_59 nphases=1 rmatrix=[0.208124] xmatrix=[1.282640] units=km
new line.line_59 bus1=bus_45.2 bus2=bus_47.2 linecode=LCode_59 length=1.0 units=km
new linecode.LCode_60 nphases=1 rmatrix=[0.626362] xmatrix=[1.536773] units=km
new line.line_60 bus1=bus_46.2 bus2=bus_48.2 linecode=LCode_60 length=1.0 units=km
new linecode.LCode_61 nphases=2 rmatrix=[0.913349 | 0.059160 0.913349] xmatrix=[1.242115 | 1.024695 1.242115] units=km
new line.line_61 bus1=bus_41.2.3 bus2=bus_48.2.3 linecode=LCode_61 length=1.0 units=km
new linecode.LCode_62 nphases=2 rmatrix=[1.051293 | 0.059160 1.051293] xmatrix=[1.367964 | 1.024695 1.367964] units=km
new line.line_62 bus1=bus_41.2.3 bus2=bus_48.2.3 linecode=LCode_62 length=1.0 units=km
new linecode.LCode_63 nphases=2 rmatrix=[0.436112 | 0.059160 0.436112] xmatrix=[1.242115 | 1.024695 1.242115] units=km
new line.line_63 bus1=bus_44.2.3 bus2=bus_48.2.3 linecode=LCode_63 length=1.0 units=km
new linecode.LCode_64 nphases=2 rmatrix=[0.634506 | 0.059160 0.634506] xmatrix=[1.242115 | 1.024695 1.242115] units=km
new line.line_64 bus1=bus_47.2.3 bus2=bus_48.2.3 linecode=LCode_64 length=1.0 units=km
new linecode.LCode_65 nphases=2 rmatrix=[0.714181 | 0.059160 0.714181] xmatrix=[1.242115 | 1.024695 1.242115] units=km
new line.line_65 bus1=bus_48.2.3 bus2=bus_49.2.3 linecode=LCode_65 length=1.0 units=km
new linecode.LCode_66 nphases=2 rmatrix=[0.604015 | 0.059160 0.604015] xmatrix=[1.550215 | 1.024695 1.550215] units=km
new line.line_66 bus1=bus_48.2.3 bus2=bus_50.2.3 linecode=LCode_66 length=1.0 units=km
new linecode.LCode_67 nphases=2 rmatrix=[0.303481 | 0.059160 0.303481] xmatrix=[1.261592 | 1.024695 1.261592] units=km
new line.line_67 bus1=bus_50.2.3 bus2=bus_51.2.3 linecode=LCode_67 length=1.0 units=km
new linecode.LCode_69 nphases=1 rmatrix=[0.952810] xmatrix=[1.242115] units=km
new line.line_69 bus1=bus_52.1 bus2=bus_53.1 linecode=LCode_69 length=1.0 units=km
new linecode.LCode_72 nphases=1 rmatrix=[0.572146] xmatrix=[1.242115] units=km
new line.line_72 bus1=bus_53.1 bus2=bus_54.1 linecode=LCode_72 length=1.0 units=km
new linecode.LCode_73 nphases=1 rmatrix=[0.264663] xmatrix=[1.440195] units=km
new line.line_73 bus1=bus_53.1 bus2=bus_55.1 linecode=LCode_73 length=1.0 units=km
new linecode.LCode_74 nphases=1 rmatrix=[0.334322] xmatrix=[1.359012] units=km
new line.line_74 bus1=bus_54.1 bus2=bus_55.1 linecode=LCode_74 length=1.0 units=km
new linecode.LCode_76 nphases=2 rmatrix=[0.471445 | 0.059160 0.471445] xmatrix=[1.242115 | 1.024695 1.242115] units=km
new line.line_76 bus1=bus_49.2.3 bus2=bus_56.2.3 linecode=LCode_76 length=1.0 units=km
new linecode.LCode_78 nphases=2 rmatrix=[0.260459 | 0.059160 0.260459] xmatrix=[1.242115 | 1.024695 1.242115] units=km
new line.line_78 bus1=bus_50.2.3 bus2=bus_57.2.3 linecode=LCode_78 length=1.0 units=km
new linecode.LCode_79 nphases=1 rmatrix=[0.582522] xmatrix=[1.502044] units=km
new line.line_79 bus1=bus_53.1 bus2=bus_58.1 linecode=LCode_79 length=1.0 units=km
new linecode.LCode_80 nphases=1 rmatrix=[0.315441] xmatrix=[1.256485] units=km
new line.line_80 bus1=bus_55.1 bus2=bus_58.1 linecode=LCode_80 length=1.0 units=km
new linecode.LCode_81 nphases=1 rmatrix=[0.448502] xmatrix=[1.242115] units=km
new line.line_81 bus1=bus_55.1 bus2=bus_58.1 linecode=LCode_81 length=1.0 units=km
new linecode.LCode_82 nphases=1 rmatrix=[0.730299] xmatrix=[1.469421] units=km
new line.line_82 bus1=bus_54.1 bus2=bus_58.1 linecode=LCode_82 length=1.0 units=km
new linecode.LCode_83 nphases=1 rmatrix=[0.604272] xmatrix=[1.365995] units=km
new line.line_83 bus1=bus_58.1 bus2=bus_59.1 linecode=LCode_83 length=1.0 units=km
new linecode.LCode_84 nphases=1 rmatrix=[0.224156] xmatrix=[1.282072] units=km
new line.line_84 bus1=bus_58.1 bus2=bus_60.1 linecode=LCode_84 length=1.0 units=km
new linecode.LCode_85 nphases=1 rmatrix=[0.897093] xmatrix=[1.341521] units=km
new line.line_85 bus1=bus_59.1 bus2=bus_60.1 linecode=LCode_85 length=1.0 units=km
new linecode.LCode_88 nphases=1 rmatrix=[0.719606] xmatrix=[1.322465] units=km
new line.line_88 bus1=bus_62.3 bus2=bus_63.3 linecode=LCode_88 length=1.0 units=km
new linecode.LCode_89 nphases=1 rmatrix=[0.939861] xmatrix=[1.242115] units=km
new line.line_89 bus1=bus_37.3 bus2=bus_64.3 linecode=LCode_89 length=1.0 units=km
new linecode.LCode_90 nphases=1 rmatrix=[0.731361] xmatrix=[1.242115] units=km
new line.line_90 bus1=bus_63.3 bus2=bus_64.3 linecode=LCode_90 length=1.0 units=km
new linecode.LCode_91 nphases=2 rmatrix=[0.468534 | 0.059160 0.468534] xmatrix=[1.242115 | 1.024695 1.242115] units=km
new line.line_91 bus1=bus_48.2.3 bus2=bus_65.2.3 linecode=LCode_91 length=1.0 units=km
new linecode.LCode_92 nphases=2 rmatrix=[0.835692 | 0.059160 0.835692] xmatrix=[1.289017 | 1.024695 1.289017] units=km
new line.line_92 bus1=bus_48.2.3 bus2=bus_65.2.3 linecode=LCode_92 length=1.0 units=km
new linecode.LCode_93 nphases=2 rmatrix=[1.075351 | 0.059160 1.075351] xmatrix=[1.242115 | 1.024695 1.242115] units=km
new line.line_93 bus1=bus_61.2.3 bus2=bus_65.2.3 linecode=LCode_93 length=1.0 units=km
new linecode.LCode_94 nphases=2 rmatrix=[1.057816 | 0.059160 1.057816] xmatrix=[1.242115 | 1.024695 1.242115] units=km
new line.line_94 bus1=bus_61.2.3 bus2=bus_66.2.3 linecode=LCode_94 length=1.0 units=km
new linecode.LCode_95 nphases=2 rmatrix=[0.213096 | 0.059160 0.213096] xmatrix=[1.242115 | 1.024695 1.242115] units=km
new line.line_95 bus1=bus_65.2.3 bus2=bus_66.2.3 linecode=LCode_95 length=1.0 units=km
new linecode.LCode_96 nphases=1 rmatrix=[0.784668] xmatrix=[1.251486] units=km
new line.line_96 bus1=bus_46.2 bus2=bus_68.2 linecode=LCode_96 length=1.0 units=km
new linecode.LCode_97 nphases=2 rmatrix=[0.711398 | 0.059160 0.711398] xmatrix=[1.417808 | 1.024695 1.417808] units=km
new line.line_97 bus1=bus_48.2.3 bus2=bus_68.2.3 linecode=LCode_97 length=1.0 units=km
new linecode.LCode_98 nphases=2 rmatrix=[0.374360 | 0.059160 0.374360] xmatrix=[1.242115 | 1.024695 1.242115] units=km
new line.line_98 bus1=bus_68.2.3 bus2=bus_69.2.3 linecode=LCode_98 length=1.0 units=km
new linecode.LCode_99 nphases=2 rmatrix=[0.923790 | 0.059160 0.923790] xmatrix=[1.242115 | 1.024695 1.242115] units=km
new line.line_99 bus1=bus_23.2.3 bus2=bus_69.2.3 linecode=LCode_99 length=1.0 units=km
new linecode.LCode_100 nphases=2 rmatrix=[0.752833 | 0.059160 0.752833] xmatrix=[1.300750 | 1.024695 1.300750] units=km
new line.line_100 bus1=bus_69.2.3 bus2=bus_70.2.3 linecode=LCode_100 length=1.0 units=km
new linecode.LCode_101 nphases=2 rmatrix=[0.354065 | 0.059160 0.354065] xmatrix=[1.242115 | 1.024695 1.242115] units=km
new line.line_101 bus1=bus_23.2.3 bus2=bus_71.2.3 linecode=LCode_101 length=1.0 units=km
new linecode.LCode_102 nphases=2 rmatrix=[0.640245 | 0.059160 0.640245] xmatrix=[1.311041 | 1.024695 1.311041] units=km
new line.line_102 bus1=bus_70.2.3 bus2=bus_71.2.3 linecode=LCode_102 length=1.0 units=km
new linecode.LCode_103 nphases=2 rmatrix=[0.262698 | 0.059160 0.262698] xmatrix=[1.242115 | 1.024695 1.242115] units=km
new line.line_103 bus1=bus_70.2.3 bus2=bus_72.2.3 linecode=LCode_103 length=1.0 units=km
new linecode.LCode_104 nphases=2 rmatrix=[0.332879 | 0.059160 0.332879] xmatrix=[1.410709 | 1.024695 1.410709] units=km
new line.line_104 bus1=bus_69.2.3 bus2=bus_73.2.3 linecode=LCode_104 length=1.0 units=km
new linecode.LCode_105 nphases=2 rmatrix=[0.600178 | 0.059160 0.600178] xmatrix=[1.286625 | 1.024695 1.286625] units=km
new line.line_105 bus1=bus_69.2.3 bus2=bus_74.2.3 linecode=LCode_105 length=1.0 units=km
new linecode.LCode_106 nphases=2 rmatrix=[0.380542 | 0.059160 0.380542] xmatrix=[1.242115 | 1.024695 1.242115] units=km
new line.line_106 bus1=bus_68.2.3 bus2=bus_74.2.3 linecode=LCode_106 length=1.0 units=km
new linecode.LCode_107 nphases=2 rmatrix=[0.716029 | 0.059160 0.716029] xmatrix=[1.242115 | 1.024695 1.242115] units=km
new line.line_107 bus1=bus_73.2.3 bus2=bus_74.2.3 linecode=LCode_107 length=1.0 units=km
new linecode.LCode_108 nphases=2 rmatrix=[0.796308 | 0.059160 0.796308] xmatrix=[1.242115 | 0.940589 1.242115] units=km
new line.line_108 bus1=bus_75.1.3 bus2=bus_76.1.3 linecode=LCode_108 length=1.0 units=km
new linecode.LCode_109 nphases=2 rmatrix=[1.708177 | 0.059160 1.708177] xmatrix=[1.333818 | 0.940589 1.333818] units=km
new line.line_109 bus1=bus_68.1.3 bus2=bus_76.1.3 linecode=LCode_109 length=1.0 units=km
new linecode.LCode_110 nphases=1 rmatrix=[0.648980] xmatrix=[1.270713] units=km
new line.line_110 bus1=bus_74.3 bus2=bus_76.3 linecode=LCode_110 length=1.0 units=km
new linecode.LCode_111 nphases=2 rmatrix=[0.909905 | 0.059160 0.909905] xmatrix=[1.507882 | 0.940589 1.507882] units=km
new line.line_111 bus1=bus_76.1.3 bus2=bus_77.1.3 linecode=LCode_111 length=1.0 units=km
new linecode.LCode_112 nphases=2 rmatrix=[0.291204 | 0.059160 0.291204] xmatrix=[1.326127 | 0.940589 1.326127] units=km
new line.line_112 bus1=bus_77.1.3 bus2=bus_78.1.3 linecode=LCode_112 length=1.0 units=km
new linecode.LCode_113 nphases=1 rmatrix=[0.320076] xmatrix=[1.491520] units=km
new line.line_113 bus1=bus_76.3 bus2=bus_79.3 linecode=LCode_113 length=1.0 units=km
new linecode.LCode_114 nphases=1 rmatrix=[0.838091] xmatrix=[1.242115] units=km
new line.line_114 bus1=bus_76.3 bus2=bus_79.3 linecode=LCode_114 length=1.0 units=km
new linecode.LCode_115 nphases=1 rmatrix=[0.360196] xmatrix=[1.242115] units=km
new line.line_115 bus1=bus_78.3 bus2=bus_79.3 linecode=LCode_115 length=1.0 units=km
new linecode.LCode_116 nphases=2 rmatrix=[0.180399 | 0.059160 0.180399] xmatrix=[1.454498 | 0.940589 1.454498] units=km
new line.line_116 bus1=bus_76.1.3 bus2=bus_81.1.3 linecode=LCode_116 length=1.0 units=km
new linecode.LCode_117 nphases=2 rmatrix=[0.205135 | 0.059160 0.205135] xmatrix=[1.473833 | 0.940589 1.473833] units=km
new line.line_117 bus1=bus_81.1.3 bus2=bus_82.1.3 linecode=LCode_117 length=1.0 units=km
new linecode.LCode_118 nphases=2 rmatrix=[0.728844 | 0.059160 0.728844] xmatrix=[1.242115 | 0.940589 1.242115] units=km
new line.line_118 bus1=bus_82.1.3 bus2=bus_83.1.3 linecode=LCode_118 length=1.0 units=km
new linecode.LCode_121 nphases=1 rmatrix=[0.805367] xmatrix=[1.683856] units=km
new line.line_121 bus1=bus_84.2 bus2=bus_85.2 linecode=LCode_121 length=1.0 units=km
new linecode.LCode_122 nphases=1 rmatrix=[0.594250] xmatrix=[1.268556] units=km
new line.line_122 bus1=bus_84.2 bus2=bus_87.2 linecode=LCode_122 length=1.0 units=km
new linecode.LCode_123 nphases=1 rmatrix=[0.522105] xmatrix=[1.310916] units=km
new line.line_123 bus1=bus_84.2 bus2=bus_88.2 linecode=LCode_123 length=1.0 units=km
new linecode.LCode_124 nphases=1 rmatrix=[0.538319] xmatrix=[1.469902] units=km
new line.line_124 bus1=bus_87.2 bus2=bus_88.2 linecode=LCode_124 length=1.0 units=km
new linecode.LCode_125 nphases=1 rmatrix=[0.581006] xmatrix=[1.435155] units=km
new line.line_125 bus1=bus_88.2 bus2=bus_89.2 linecode=LCode_125 length=1.0 units=km
new linecode.LCode_126 nphases=1 rmatrix=[0.281441] xmatrix=[1.260907] units=km
new line.line_126 bus1=bus_88.2 bus2=bus_89.2 linecode=LCode_126 length=1.0 units=km
new linecode.LCode_130 nphases=1 rmatrix=[1.022664] xmatrix=[1.242115] units=km
new line.line_130 bus1=bus_90.3 bus2=bus_91.3 linecode=LCode_130 length=1.0 units=km
new linecode.LCode_131 nphases=1 rmatrix=[0.525090] xmatrix=[1.495278] units=km
new line.line_131 bus1=bus_91.3 bus2=bus_92.3 linecode=LCode_131 length=1.0 units=km
new linecode.LCode_132 nphases=1 rmatrix=[1.034748] xmatrix=[1.242115] units=km
new line.line_132 bus1=bus_91.3 bus2=bus_93.3 linecode=LCode_132 length=1.0 units=km
new linecode.LCode_133 nphases=1 rmatrix=[0.535601] xmatrix=[1.283947] units=km
new line.line_133 bus1=bus_92.3 bus2=bus_93.3 linecode=LCode_133 length=1.0 units=km
new linecode.LCode_134 nphases=1 rmatrix=[0.505482] xmatrix=[1.250266] units=km
new line.line_134 bus1=bus_93.3 bus2=bus_94.3 linecode=LCode_134 length=1.0 units=km
new linecode.LCode_135 nphases=1 rmatrix=[0.734196] xmatrix=[1.242115] units=km
new line.line_135 bus1=bus_79.3 bus2=bus_95.3 linecode=LCode_135 length=1.0 units=km
new linecode.LCode_136 nphases=1 rmatrix=[0.853023] xmatrix=[1.254528] units=km
new line.line_136 bus1=bus_81.3 bus2=bus_95.3 linecode=LCode_136 length=1.0 units=km
new linecode.LCode_137 nphases=1 rmatrix=[0.997281] xmatrix=[1.319801] units=km
new line.line_137 bus1=bus_93.3 bus2=bus_95.3 linecode=LCode_137 length=1.0 units=km
new linecode.LCode_138 nphases=1 rmatrix=[1.460760] xmatrix=[1.350524] units=km
new line.line_138 bus1=bus_79.3 bus2=bus_96.3 linecode=LCode_138 length=1.0 units=km
new linecode.LCode_139 nphases=1 rmatrix=[0.356098] xmatrix=[1.242115] units=km
new line.line_139 bus1=bus_79.3 bus2=bus_97.3 linecode=LCode_139 length=1.0 units=km
new linecode.LCode_140 nphases=1 rmatrix=[0.893514] xmatrix=[1.242115] units=km
new line.line_140 bus1=bus_79.3 bus2=bus_98.3 linecode=LCode_140 length=1.0 units=km
new linecode.LCode_141 nphases=1 rmatrix=[0.340138] xmatrix=[1.242115] units=km
new line.line_141 bus1=bus_91.3 bus2=bus_99.3 linecode=LCode_141 length=1.0 units=km
new linecode.LCode_142 nphases=1 rmatrix=[0.740845] xmatrix=[1.336438] units=km
new line.line_142 bus1=bus_93.3 bus2=bus_99.3 linecode=LCode_142 length=1.0 units=km
new linecode.LCode_143 nphases=1 rmatrix=[1.107542] xmatrix=[1.242115] units=km
new line.line_143 bus1=bus_94.3 bus2=bus_95.3 linecode=LCode_143 length=1.0 units=km
new linecode.LCode_144 nphases=1 rmatrix=[0.273182] xmatrix=[1.286550] units=km
new line.line_144 bus1=bus_95.3 bus2=bus_96.3 linecode=LCode_144 length=1.0 units=km
new linecode.LCode_145 nphases=1 rmatrix=[1.206424] xmatrix=[1.242115] units=km
new line.line_145 bus1=bus_97.3 bus2=bus_99.3 linecode=LCode_145 length=1.0 units=km
new linecode.LCode_146 nphases=1 rmatrix=[0.589035] xmatrix=[1.352183] units=km
new line.line_146 bus1=bus_98.3 bus2=bus_99.3 linecode=LCode_146 length=1.0 units=km
new linecode.LCode_147 nphases=1 rmatrix=[1.246278] xmatrix=[1.341145] units=km
new line.line_147 bus1=bus_99.3 bus2=bus_100.3 linecode=LCode_147 length=1.0 units=km
new linecode.LCode_148 nphases=1 rmatrix=[0.848087] xmatrix=[1.242115] units=km
new line.line_148 bus1=bus_91.3 bus2=bus_101.3 linecode=LCode_148 length=1.0 units=km
new linecode.LCode_149 nphases=1 rmatrix=[0.545645] xmatrix=[1.242115] units=km
new line.line_149 bus1=bus_100.3 bus2=bus_101.3 linecode=LCode_149 length=1.0 units=km
new linecode.LCode_150 nphases=1 rmatrix=[0.583101] xmatrix=[1.287800] units=km
new line.line_150 bus1=bus_99.3 bus2=bus_102.3 linecode=LCode_150 length=1.0 units=km
new linecode.LCode_151 nphases=1 rmatrix=[0.635044] xmatrix=[1.374467] units=km
new line.line_151 bus1=bus_99.3 bus2=bus_103.3 linecode=LCode_151 length=1.0 units=km
new linecode.LCode_152 nphases=1 rmatrix=[0.772538] xmatrix=[1.242115] units=km
new line.line_152 bus1=bus_102.3 bus2=bus_103.3 linecode=LCode_152 length=1.0 units=km
new linecode.LCode_153 nphases=1 rmatrix=[0.705225] xmatrix=[1.330261] units=km
new line.line_153 bus1=bus_102.3 bus2=bus_104.3 linecode=LCode_153 length=1.0 units=km
new linecode.LCode_154 nphases=1 rmatrix=[0.601529] xmatrix=[1.242115] units=km
new line.line_154 bus1=bus_99.3 bus2=bus_105.3 linecode=LCode_154 length=1.0 units=km
new linecode.LCode_155 nphases=1 rmatrix=[0.246454] xmatrix=[1.308606] units=km
new line.line_155 bus1=bus_103.3 bus2=bus_104.3 linecode=LCode_155 length=1.0 units=km
new linecode.LCode_156 nphases=1 rmatrix=[0.846258] xmatrix=[1.242115] units=km
new line.line_156 bus1=bus_104.3 bus2=bus_105.3 linecode=LCode_156 length=1.0 units=km
new linecode.LCode_157 nphases=1 rmatrix=[0.653064] xmatrix=[1.242115] units=km
new line.line_157 bus1=bus_104.3 bus2=bus_106.3 linecode=LCode_157 length=1.0 units=km
new linecode.LCode_158 nphases=1 rmatrix=[0.984208] xmatrix=[1.242115] units=km
new line.line_158 bus1=bus_104.3 bus2=bus_107.3 linecode=LCode_158 length=1.0 units=km
new linecode.LCode_159 nphases=1 rmatrix=[0.336115] xmatrix=[1.288371] units=km
new line.line_159 bus1=bus_105.3 bus2=bus_106.3 linecode=LCode_159 length=1.0 units=km
new linecode.LCode_160 nphases=1 rmatrix=[0.463436] xmatrix=[1.518792] units=km
new line.line_160 bus1=bus_107.3 bus2=bus_108.3 linecode=LCode_160 length=1.0 units=km
new linecode.LCode_161 nphases=1 rmatrix=[1.479435] xmatrix=[1.361789] units=km
new line.line_161 bus1=bus_102.3 bus2=bus_109.3 linecode=LCode_161 length=1.0 units=km
new linecode.LCode_162 nphases=1 rmatrix=[0.422164] xmatrix=[1.685765] units=km
new line.line_162 bus1=bus_108.3 bus2=bus_109.3 linecode=LCode_162 length=1.0 units=km
new linecode.LCode_163 nphases=1 rmatrix=[0.567362] xmatrix=[1.301759] units=km
new line.line_163 bus1=bus_109.3 bus2=bus_110.3 linecode=LCode_163 length=1.0 units=km
new linecode.LCode_164 nphases=1 rmatrix=[0.770122] xmatrix=[1.242115] units=km
new line.line_164 bus1=bus_109.3 bus2=bus_111.3 linecode=LCode_164 length=1.0 units=km
new linecode.LCode_165 nphases=1 rmatrix=[0.538641] xmatrix=[1.329929] units=km
new line.line_165 bus1=bus_16.3 bus2=bus_112.3 linecode=LCode_165 length=1.0 units=km
new linecode.LCode_166 nphases=1 rmatrix=[0.852669] xmatrix=[1.242115] units=km
new line.line_166 bus1=bus_31.3 bus2=bus_112.3 linecode=LCode_166 length=1.0 units=km
new linecode.LCode_167 nphases=1 rmatrix=[0.787024] xmatrix=[1.338720] units=km
new line.line_167 bus1=bus_31.3 bus2=bus_113.3 linecode=LCode_167 length=1.0 units=km
new linecode.LCode_168 nphases=1 rmatrix=[0.741267] xmatrix=[1.242115] units=km
new line.line_168 bus1=bus_26.3 bus2=bus_114.3 linecode=LCode_168 length=1.0 units=km
new linecode.LCode_169 nphases=1 rmatrix=[0.956723] xmatrix=[1.242115] units=km
new line.line_169 bus1=bus_113.3 bus2=bus_114.3 linecode=LCode_169 length=1.0 units=km
new linecode.LCode_170 nphases=1 rmatrix=[1.147964] xmatrix=[1.343384] units=km
new line.line_170 bus1=bus_11.3 bus2=bus_116.3 linecode=LCode_170 length=1.0 units=km
new linecode.LCode_171 nphases=2 rmatrix=[1.006312 | 0.059160 1.006312] xmatrix=[1.242115 | 1.024695 1.242115] units=km
new line.line_171 bus1=bus_74.2.3 bus2=bus_117.2.3 linecode=LCode_171 length=1.0 units=km
new linecode.LCode_172 nphases=1 rmatrix=[0.571782] xmatrix=[1.367165] units=km
new line.line_172 bus1=bus_75.3 bus2=bus_117.3 linecode=LCode_172 length=1.0 units=km

!---------------- LOADS ----------------

new load.load_0_C bus1=bus_0.3 Phases=1 kv=157.6864406779661 kw=2053.741085786306 kvar=673.6270761379084 vminpu=0.85
new load.load_1_C bus1=bus_1.3 Phases=1 kv=157.6864406779661 kw=2259.8999270385466 kvar=741.2471760686433 vminpu=0.85
new load.load_2_C bus1=bus_2.3 Phases=1 kv=157.6864406779661 kw=1528.0124931800522 kvar=501.18809776305716 vminpu=0.85
new load.load_3_C bus1=bus_3.3 Phases=1 kv=157.6864406779661 kw=2753.6888070537966 kvar=903.2099287136454 vminpu=0.85
new load.load_4_C bus1=bus_4.3 Phases=1 kv=157.6864406779661 kw=2063.6299096630114 kvar=676.8706103694677 vminpu=0.85
new load.load_5_C bus1=bus_5.3 Phases=1 kv=157.6864406779661 kw=2313.14537171123 kvar=758.7116819212835 vminpu=0.85
new load.load_6_C bus1=bus_6.3 Phases=1 kv=157.6864406779661 kw=1849.4670955004772 kvar=606.6252073241566 vminpu=0.85
new load.load_7_C bus1=bus_7.3 Phases=1 kv=157.6864406779661 kw=1969.737568162144 kvar=646.0739223571833 vminpu=0.85
new load.load_8_C bus1=bus_8.3 Phases=1 kv=157.6864406779661 kw=1932.8787488225237 kvar=633.9842296137878 vminpu=0.85
new load.load_9_C bus1=bus_9.3 Phases=1 kv=157.6864406779661 kw=1680.3751754742077 kvar=551.1630575555401 vminpu=0.85
new load.load_10_C bus1=bus_10.3 Phases=1 kv=157.6864406779661 kw=2014.35938151885 kvar=660.7098771381828 vminpu=0.85
new load.load_11_C bus1=bus_11.3 Phases=1 kv=157.6864406779661 kw=2283.4967887271014 kvar=748.9869467024893 vminpu=0.85
new load.load_12_B bus1=bus_12.2 Phases=1 kv=157.6864406779661 kw=1362.1054741970104 kvar=446.7705955366194 vminpu=0.85
new load.load_12_C bus1=bus_12.3 Phases=1 kv=157.6864406779661 kw=1096.1138613157837 kvar=359.525346511577 vminpu=0.85
new load.load_13_B bus1=bus_13.2 Phases=1 kv=157.6864406779661 kw=1018.6691448456716 kvar=334.1234795093803 vminpu=0.85
new load.load_13_C bus1=bus_13.3 Phases=1 kv=157.6864406779661 kw=1107.8037279954262 kvar=363.3596227824998 vminpu=0.85
new load.load_14_B bus1=bus_14.2 Phases=1 kv=157.6864406779661 kw=2083.137797361883 kvar=683.2691975346976 vminpu=0.85
new load.load_14_C bus1=bus_14.3 Phases=1 kv=157.6864406779661 kw=458.1124558983491 kvar=150.2608855346585 vminpu=0.85
new load.load_15_C bus1=bus_15.3 Phases=1 kv=157.6864406779661 kw=1756.573324874248 kvar=576.1560505587533 vminpu=0.85
new load.load_16_C bus1=bus_16.3 Phases=1 kv=157.6864406779661 kw=1807.0765351852651 kvar=592.721103540767 vminpu=0.85
new load.load_17_C bus1=bus_17.3 Phases=1 kv=157.6864406779661 kw=1942.6220947602565 kvar=637.1800470813641 vminpu=0.85
new load.load_18_A bus1=bus_18.1 Phases=1 kv=157.6864406779661 kw=2581.724334909284 kvar=846.8055818502453 vminpu=0.85
new load.load_19_C bus1=bus_19.3 Phases=1 kv=157.6864406779661 kw=1583.6330147100746 kvar=519.4316288249045 vminpu=0.85
new load.load_20_C bus1=bus_20.3 Phases=1 kv=157.6864406779661 kw=2534.2358322635587 kvar=831.2293529824473 vminpu=0.85
new load.load_21_C bus1=bus_21.3 Phases=1 kv=157.6864406779661 kw=2347.9292827795666 kvar=770.1208047516978 vminpu=0.85
new load.load_22_C bus1=bus_22.3 Phases=1 kv=157.6864406779661 kw=2074.6166658097304 kvar=680.4742663855916 vminpu=0.85
new load.load_23_B bus1=bus_23.2 Phases=1 kv=157.6864406779661 kw=1002.6165232513964 kvar=328.85821962645804 vminpu=0.85
new load.load_23_C bus1=bus_23.3 Phases=1 kv=157.6864406779661 kw=1576.6599082038356 kvar=517.1444498908581 vminpu=0.85
new load.load_24_C bus1=bus_24.3 Phases=1 kv=157.6864406779661 kw=2168.0320886777554 kvar=711.1145250863038 vminpu=0.85
new load.load_25_C bus1=bus_25.3 Phases=1 kv=157.6864406779661 kw=1825.8042192537705 kvar=598.8637839152367 vminpu=0.85
new load.load_26_C bus1=bus_26.3 Phases=1 kv=157.6864406779661 kw=2040.13173675468 kvar=669.1632096555351 vminpu=0.85
new load.load_27_C bus1=bus_27.3 Phases=1 kv=157.6864406779661 kw=2007.0186435961848 kvar=658.3021150995486 vminpu=0.85
new load.load_28_C bus1=bus_28.3 Phases=1 kv=157.6864406779661 kw=1813.7071846816907 kvar=594.8959565755946 vminpu=0.85
new load.load_29_C bus1=bus_29.3 Phases=1 kv=157.6864406779661 kw=2190.601210575107 kvar=718.5171970686351 vminpu=0.85
new load.load_30_C bus1=bus_30.3 Phases=1 kv=157.6864406779661 kw=2022.5165478298368 kvar=663.3854276881865 vminpu=0.85
new load.load_31_C bus1=bus_31.3 Phases=1 kv=157.6864406779661 kw=2191.5759361447435 kvar=718.8369070554759 vminpu=0.85
new load.load_32_B bus1=bus_32.2 Phases=1 kv=157.6864406779661 kw=1266.224714072947 kvar=415.32170621592667 vminpu=0.85
new load.load_32_C bus1=bus_32.3 Phases=1 kv=157.6864406779661 kw=1337.7317520416714 kvar=438.7760146696682 vminpu=0.85
new load.load_33_A bus1=bus_33.1 Phases=1 kv=157.6864406779661 kw=1790.6213681330391 kvar=587.3238087476369 vminpu=0.85
new load.load_34_B bus1=bus_34.2 Phases=1 kv=157.6864406779661 kw=266.7148660391452 kvar=87.48247606083963 vminpu=0.85
new load.load_34_C bus1=bus_34.3 Phases=1 kv=157.6864406779661 kw=1895.0737923612191 kvar=621.5842038944799 vminpu=0.85
new load.load_35_B bus1=bus_35.2 Phases=1 kv=157.6864406779661 kw=1137.9945112901703 kvar=373.2621997031759 vminpu=0.85
new load.load_35_C bus1=bus_35.3 Phases=1 kv=157.6864406779661 kw=1101.1880688998608 kvar=361.18968659915436 vminpu=0.85
new load.load_36_B bus1=bus_36.2 Phases=1 kv=157.6864406779661 kw=609.44956739209 kvar=199.89945810460551 vminpu=0.85
new load.load_36_C bus1=bus_36.3 Phases=1 kv=157.6864406779661 kw=1397.1319392174937 kvar=458.25927606333795 vminpu=0.85
new load.load_37_C bus1=bus_37.3 Phases=1 kv=157.6864406779661 kw=2801.376778083317 kvar=918.8515832113279 vminpu=0.85
new load.load_38_B bus1=bus_38.2 Phases=1 kv=157.6864406779661 kw=1776.4847112331124 kvar=582.6869852844609 vminpu=0.85
new load.load_38_C bus1=bus_38.3 Phases=1 kv=157.6864406779661 kw=213.74287793111824 kvar=70.10766396140679 vminpu=0.85
new load.load_39_B bus1=bus_39.2 Phases=1 kv=157.6864406779661 kw=1871.5114900751132 kvar=613.8557687446372 vminpu=0.85
new load.load_39_C bus1=bus_39.3 Phases=1 kv=157.6864406779661 kw=380.31711661000617 kvar=124.74401424808202 vminpu=0.85
new load.load_40_B bus1=bus_40.2 Phases=1 kv=157.6864406779661 kw=295.19365476920785 kvar=96.82351876430018 vminpu=0.85
new load.load_40_C bus1=bus_40.3 Phases=1 kv=157.6864406779661 kw=1522.9314236826142 kvar=499.5215069678975 vminpu=0.85
new load.load_41_B bus1=bus_41.2 Phases=1 kv=157.6864406779661 kw=17.159218801846293 kvar=5.628223767005585 vminpu=0.85
new load.load_41_C bus1=bus_41.3 Phases=1 kv=157.6864406779661 kw=1757.508220123453 kvar=576.4626962004926 vminpu=0.85
new load.load_42_B bus1=bus_42.2 Phases=1 kv=157.6864406779661 kw=1228.5958809092324 kvar=402.97944893822824 vminpu=0.85
new load.load_42_C bus1=bus_42.3 Phases=1 kv=157.6864406779661 kw=828.9471588431854 kvar=271.89466810056484 vminpu=0.85
new load.load_43_B bus1=bus_43.2 Phases=1 kv=157.6864406779661 kw=10.200402314422917 kvar=3.345731959130717 vminpu=0.85
new load.load_43_C bus1=bus_43.3 Phases=1 kv=157.6864406779661 kw=2205.7214726382745 kvar=723.4766430253541 vminpu=0.85
new load.load_44_B bus1=bus_44.2 Phases=1 kv=157.6864406779661 kw=1210.135074866302 kvar=396.92430455614704 vminpu=0.85
new load.load_44_C bus1=bus_44.3 Phases=1 kv=157.6864406779661 kw=997.587459575842 kvar=327.2086867408762 vminpu=0.85
new load.load_45_B bus1=bus_45.2 Phases=1 kv=157.6864406779661 kw=2037.7275287724087 kvar=668.3746294373501 vminpu=0.85
new load.load_46_B bus1=bus_46.2 Phases=1 kv=157.6864406779661 kw=2149.1908197099565 kvar=704.9345888648658 vminpu=0.85
new load.load_47_B bus1=bus_47.2 Phases=1 kv=157.6864406779661 kw=1543.4170145684004 kvar=506.24078077843535 vminpu=0.85
new load.load_47_C bus1=bus_47.3 Phases=1 kv=157.6864406779661 kw=1089.480449763462 kvar=357.34958752241556 vminpu=0.85
new load.load_48_B bus1=bus_48.2 Phases=1 kv=157.6864406779661 kw=1372.4687965930805 kvar=450.1697652825304 vminpu=0.85
new load.load_48_C bus1=bus_48.3 Phases=1 kv=157.6864406779661 kw=809.8392035927827 kvar=265.62725877843275 vminpu=0.85
new load.load_49_B bus1=bus_49.2 Phases=1 kv=157.6864406779661 kw=1096.3961943386412 kvar=359.61795174307434 vminpu=0.85
new load.load_49_C bus1=bus_49.3 Phases=1 kv=157.6864406779661 kw=754.2253121234501 kvar=247.38590237649163 vminpu=0.85
new load.load_50_B bus1=bus_50.2 Phases=1 kv=157.6864406779661 kw=992.5743861076952 kvar=325.56439864332407 vminpu=0.85
new load.load_50_C bus1=bus_50.3 Phases=1 kv=157.6864406779661 kw=1083.670833790234 kvar=355.44403348319673 vminpu=0.85
new load.load_51_B bus1=bus_51.2 Phases=1 kv=157.6864406779661 kw=648.8427140933504 kvar=212.82041022261896 vminpu=0.85
new load.load_51_C bus1=bus_51.3 Phases=1 kv=157.6864406779661 kw=1515.811228445164 kvar=497.1860829300138 vminpu=0.85
new load.load_52_A bus1=bus_52.1 Phases=1 kv=157.6864406779661 kw=2054.5320017797358 kvar=673.8864965837533 vminpu=0.85
new load.load_53_A bus1=bus_53.1 Phases=1 kv=157.6864406779661 kw=1555.203042460438 kvar=510.10659792702364 vminpu=0.85
new load.load_54_A bus1=bus_54.1 Phases=1 kv=157.6864406779661 kw=2397.4833371292243 kvar=786.3745345783856 vminpu=0.85
new load.load_55_A bus1=bus_55.1 Phases=1 kv=157.6864406779661 kw=2007.728243358892 kvar=658.5348638217166 vminpu=0.85
new load.load_56_B bus1=bus_56.2 Phases=1 kv=157.6864406779661 kw=1378.2002311355766 kvar=452.04967581246916 vminpu=0.85
new load.load_56_C bus1=bus_56.3 Phases=1 kv=157.6864406779661 kw=1384.3198876573856 kvar=454.05692315162247 vminpu=0.85
new load.load_57_B bus1=bus_57.2 Phases=1 kv=157.6864406779661 kw=1237.8844749917175 kvar=406.0261077972834 vminpu=0.85
new load.load_57_C bus1=bus_57.3 Phases=1 kv=157.6864406779661 kw=754.2081552536298 kvar=247.3802749231906 vminpu=0.85
new load.load_58_A bus1=bus_58.1 Phases=1 kv=157.6864406779661 kw=2408.737526490748 kvar=790.0659086889655 vminpu=0.85
new load.load_59_A bus1=bus_59.1 Phases=1 kv=157.6864406779661 kw=1983.7611019466788 kvar=650.6736414385107 vminpu=0.85
new load.load_60_A bus1=bus_60.1 Phases=1 kv=157.6864406779661 kw=1826.610503697035 kvar=599.1282452126275 vminpu=0.85
new load.load_61_B bus1=bus_61.2 Phases=1 kv=157.6864406779661 kw=580.1263284356421 kvar=190.2814357268906 vminpu=0.85
new load.load_61_C bus1=bus_61.3 Phases=1 kv=157.6864406779661 kw=1133.034234348902 kvar=371.63522886643983 vminpu=0.85
new load.load_62_C bus1=bus_62.3 Phases=1 kv=157.6864406779661 kw=2013.8254956549724 kvar=660.534762574831 vminpu=0.85
new load.load_63_C bus1=bus_63.3 Phases=1 kv=157.6864406779661 kw=2651.6407017959723 kvar=869.738150189079 vminpu=0.85
new load.load_64_C bus1=bus_64.3 Phases=1 kv=157.6864406779661 kw=1506.2128776578295 kvar=494.03782387176807 vminpu=0.85
new load.load_65_B bus1=bus_65.2 Phases=1 kv=157.6864406779661 kw=1338.6589328146424 kvar=439.08012996320275 vminpu=0.85
new load.load_65_C bus1=bus_65.3 Phases=1 kv=157.6864406779661 kw=687.8329924060307 kvar=225.60922150917807 vminpu=0.85
new load.load_66_B bus1=bus_66.2 Phases=1 kv=157.6864406779661 kw=1456.3798818006176 kvar=477.6926012306026 vminpu=0.85
new load.load_66_C bus1=bus_66.3 Phases=1 kv=157.6864406779661 kw=329.8087250770689 kvar=108.1772618252786 vminpu=0.85
new load.load_67_C bus1=bus_67.3 Phases=1 kv=157.6864406779661 kw=2611.566903605295 kvar=856.5939443825368 vminpu=0.85
new load.load_69_B bus1=bus_69.2 Phases=1 kv=157.6864406779661 kw=1590.6806548976629 kvar=521.7432548064335 vminpu=0.85
new load.load_69_C bus1=bus_69.3 Phases=1 kv=157.6864406779661 kw=61.67794133455818 kvar=20.23036475773508 vminpu=0.85
new load.load_70_B bus1=bus_70.2 Phases=1 kv=157.6864406779661 kw=1378.891824077918 kvar=452.2765182975571 vminpu=0.85
new load.load_70_C bus1=bus_70.3 Phases=1 kv=157.6864406779661 kw=833.909669771882 kvar=273.5223716851773 vminpu=0.85
new load.load_71_B bus1=bus_71.2 Phases=1 kv=157.6864406779661 kw=85.50979453846132 kvar=28.047212608615315 vminpu=0.85
new load.load_71_C bus1=bus_71.3 Phases=1 kv=157.6864406779661 kw=1520.321012708967 kvar=498.66529216854116 vminpu=0.85
new load.load_72_B bus1=bus_72.2 Phases=1 kv=157.6864406779661 kw=2163.8524403948754 kvar=709.7436004495191 vminpu=0.85
new load.load_72_C bus1=bus_72.3 Phases=1 kv=157.6864406779661 kw=38.666909940313886 kvar=12.682746460422955 vminpu=0.85
new load.load_73_B bus1=bus_73.2 Phases=1 kv=157.6864406779661 kw=34.68236964589303 kvar=11.375817243852914 vminpu=0.85
new load.load_73_C bus1=bus_73.3 Phases=1 kv=157.6864406779661 kw=1410.3428263571632 kvar=462.5924470451495 vminpu=0.85
new load.load_74_B bus1=bus_74.2 Phases=1 kv=157.6864406779661 kw=1318.175629985193 kvar=432.3616066351433 vminpu=0.85
new load.load_74_C bus1=bus_74.3 Phases=1 kv=157.6864406779661 kw=781.9737048784169 kvar=256.48737520012077 vminpu=0.85
new load.load_75_A bus1=bus_75.1 Phases=1 kv=157.6864406779661 kw=471.4285524465545 kvar=154.62856520246987 vminpu=0.85
new load.load_75_C bus1=bus_75.3 Phases=1 kv=157.6864406779661 kw=1633.561481472797 kvar=535.8081659230774 vminpu=0.85
new load.load_76_A bus1=bus_76.1 Phases=1 kv=157.6864406779661 kw=428.3978448620409 kvar=140.51449311474943 vminpu=0.85
new load.load_76_C bus1=bus_76.3 Phases=1 kv=157.6864406779661 kw=1860.582058983586 kvar=610.2709153466162 vminpu=0.85
new load.load_77_A bus1=bus_77.1 Phases=1 kv=157.6864406779661 kw=147.82166261080664 kvar=48.48550533634458 vminpu=0.85
new load.load_77_C bus1=bus_77.3 Phases=1 kv=157.6864406779661 kw=1920.5524503184004 kvar=629.9412037044353 vminpu=0.85
new load.load_78_A bus1=bus_78.1 Phases=1 kv=157.6864406779661 kw=1136.2517039506592 kvar=372.69055889581625 vminpu=0.85
new load.load_78_C bus1=bus_78.3 Phases=1 kv=157.6864406779661 kw=1200.812772962506 kvar=393.86658953170195 vminpu=0.85
new load.load_79_C bus1=bus_79.3 Phases=1 kv=157.6864406779661 kw=2339.425858735544 kvar=767.3316816652584 vminpu=0.85
new load.load_80_C bus1=bus_80.3 Phases=1 kv=157.6864406779661 kw=1975.1444451377276 kvar=647.8473780051747 vminpu=0.85
new load.load_81_A bus1=bus_81.1 Phases=1 kv=157.6864406779661 kw=78.5125557551878 kvar=25.752118287701602 vminpu=0.85
new load.load_81_C bus1=bus_81.3 Phases=1 kv=157.6864406779661 kw=1823.0482639812603 kvar=597.9598305858534 vminpu=0.85
new load.load_82_A bus1=bus_82.1 Phases=1 kv=157.6864406779661 kw=1472.7272739188104 kvar=483.05454584536983 vminpu=0.85
new load.load_82_C bus1=bus_82.3 Phases=1 kv=157.6864406779661 kw=1350.5261460926956 kvar=442.9725759184042 vminpu=0.85
new load.load_83_A bus1=bus_83.1 Phases=1 kv=157.6864406779661 kw=5.770682158544312 kvar=1.8927837480025342 vminpu=0.85
new load.load_83_C bus1=bus_83.3 Phases=1 kv=157.6864406779661 kw=1533.7022664183062 kvar=503.05434338520445 vminpu=0.85
new load.load_84_B bus1=bus_84.2 Phases=1 kv=157.6864406779661 kw=1667.702725508149 kvar=547.0064939666729 vminpu=0.85
new load.load_85_B bus1=bus_85.2 Phases=1 kv=157.6864406779661 kw=1386.928029967847 kvar=454.9123938294538 vminpu=0.85
new load.load_86_B bus1=bus_86.2 Phases=1 kv=157.6864406779661 kw=1861.4793480723508 kvar=610.5652261677311 vminpu=0.85
new load.load_87_B bus1=bus_87.2 Phases=1 kv=157.6864406779661 kw=1731.231553684981 kvar=567.8439496086738 vminpu=0.85
new load.load_88_B bus1=bus_88.2 Phases=1 kv=157.6864406779661 kw=2443.493197420652 kvar=801.4657687539739 vminpu=0.85
new load.load_89_B bus1=bus_89.2 Phases=1 kv=157.6864406779661 kw=1534.1241250261055 kvar=503.19271300856263 vminpu=0.85
new load.load_90_C bus1=bus_90.3 Phases=1 kv=157.6864406779661 kw=2007.1527521273129 kvar=658.3461026977586 vminpu=0.85
new load.load_91_C bus1=bus_91.3 Phases=1 kv=157.6864406779661 kw=1528.35481272231 kvar=501.30037857291774 vminpu=0.85
new load.load_92_C bus1=bus_92.3 Phases=1 kv=157.6864406779661 kw=2240.7798192078767 kvar=734.9757807001836 vminpu=0.85
new load.load_93_C bus1=bus_93.3 Phases=1 kv=157.6864406779661 kw=2666.0383364189174 kvar=874.460574345405 vminpu=0.85
new load.load_94_C bus1=bus_94.3 Phases=1 kv=157.6864406779661 kw=2397.8327458539093 kvar=786.4891406400823 vminpu=0.85
new load.load_95_C bus1=bus_95.3 Phases=1 kv=157.6864406779661 kw=1539.9942018623467 kvar=505.1180982108497 vminpu=0.85
new load.load_96_C bus1=bus_96.3 Phases=1 kv=157.6864406779661 kw=2355.369991923193 kvar=772.5613573508074 vminpu=0.85
new load.load_97_C bus1=bus_97.3 Phases=1 kv=157.6864406779661 kw=2142.074501894464 kvar=702.6004366213842 vminpu=0.85
new load.load_98_C bus1=bus_98.3 Phases=1 kv=157.6864406779661 kw=2097.159496877328 kvar=687.8683149757636 vminpu=0.85
new load.load_99_C bus1=bus_99.3 Phases=1 kv=157.6864406779661 kw=2540.49966799051 kvar=833.2838911008872 vminpu=0.85
new load.load_100_C bus1=bus_100.3 Phases=1 kv=157.6864406779661 kw=2217.422872249102 kvar=727.3147020977055 vminpu=0.85
new load.load_101_C bus1=bus_101.3 Phases=1 kv=157.6864406779661 kw=2889.701566401836 kvar=947.8221137798022 vminpu=0.85
new load.load_102_C bus1=bus_102.3 Phases=1 kv=157.6864406779661 kw=2025.386125787909 kvar=664.3266492584341 vminpu=0.85
new load.load_103_C bus1=bus_103.3 Phases=1 kv=157.6864406779661 kw=2196.4304260360414 kvar=720.4291797398216 vminpu=0.85
new load.load_104_C bus1=bus_104.3 Phases=1 kv=157.6864406779661 kw=2391.8013667596683 kvar=784.5108482971713 vminpu=0.85
new load.load_105_C bus1=bus_105.3 Phases=1 kv=157.6864406779661 kw=1553.0571931928846 kvar=509.4027593672662 vminpu=0.85
new load.load_106_C bus1=bus_106.3 Phases=1 kv=157.6864406779661 kw=2118.624660558615 kvar=694.9088886632256 vminpu=0.85
new load.load_107_C bus1=bus_107.3 Phases=1 kv=157.6864406779661 kw=2102.845307973342 kvar=689.7332610152563 vminpu=0.85
new load.load_108_C bus1=bus_108.3 Phases=1 kv=157.6864406779661 kw=1801.0474066120437 kvar=590.7435493687503 vminpu=0.85
new load.load_109_C bus1=bus_109.3 Phases=1 kv=157.6864406779661 kw=1565.2097479656445 kvar=513.3887973327314 vminpu=0.85
new load.load_110_C bus1=bus_110.3 Phases=1 kv=157.6864406779661 kw=1635.4725329969624 kvar=536.4349908230037 vminpu=0.85
new load.load_111_C bus1=bus_111.3 Phases=1 kv=157.6864406779661 kw=2259.4580625084027 kvar=741.1022445027561 vminpu=0.85
new load.load_112_C bus1=bus_112.3 Phases=1 kv=157.6864406779661 kw=1871.049597024957 kvar=613.7042678241859 vminpu=0.85
new load.load_113_C bus1=bus_113.3 Phases=1 kv=157.6864406779661 kw=2309.194228337413 kvar=757.4157068946714 vminpu=0.85
new load.load_114_C bus1=bus_114.3 Phases=1 kv=157.6864406779661 kw=2541.84550381016 kvar=833.7253252497326 vminpu=0.85
new load.load_115_C bus1=bus_115.3 Phases=1 kv=157.6864406779661 kw=1945.1490545461888 kvar=638.0088898911499 vminpu=0.85
new load.load_116_C bus1=bus_116.3 Phases=1 kv=157.6864406779661 kw=2273.3827321045665 kvar=745.6695361302978 vminpu=0.85
new load.load_117_B bus1=bus_117.2 Phases=1 kv=157.6864406779661 kw=1331.8580586455173 kvar=436.84944323572967 vminpu=0.85
new load.load_117_C bus1=bus_117.3 Phases=1 kv=157.6864406779661 kw=787.1230667161743 kvar=258.1763658829052 vminpu=0.85

!---------------- SOLUTION ----------------

set controlmode=off
Set Voltagebases=[157.6864406779661]
calcv
Solve